[TITLE]
;;Project Title/Notes

[OPTIONS]
;;Option             Value
FLOW_UNITS           CMS
INFILTRATION         CURVE_NUMBER
FLOW_ROUTING         DYNWAVE
LINK_OFFSETS         DEPTH
MIN_SLOPE            0
ALLOW_PONDING        NO
SKIP_STEADY_STATE    YES

START_DATE           11/04/2013
START_TIME           22:00:00
REPORT_START_DATE    11/05/2013
REPORT_START_TIME    00:00:00
END_DATE             11/17/2013
END_TIME             02:30:00
SWEEP_START          01/01
SWEEP_END            01/31
DRY_DAYS             0
REPORT_STEP          00:15:00
WET_STEP             01:05:00
DRY_STEP             24:15:00
ROUTING_STEP         0:00:35 

INERTIAL_DAMPING     PARTIAL
NORMAL_FLOW_LIMITED  BOTH
FORCE_MAIN_EQUATION  D-W
VARIABLE_STEP        0.00
LENGTHENING_STEP     0
MIN_SURFAREA         1.14
MAX_TRIALS           8
HEAD_TOLERANCE       0.0015
SYS_FLOW_TOL         5
LAT_FLOW_TOL         5
MINIMUM_STEP         0.5
THREADS              1

[EVAPORATION]
;;Data Source    Parameters
;;-------------- ----------------
CONSTANT         0.0
DRY_ONLY         NO

[RAINGAGES]
;;Name           Format    Interval SCF      Source    
;;-------------- --------- ------ ------ ----------
c1               VOLUME    00:05    1.0      FILE       "c1.DAT"         c1         MM   
c2               VOLUME    00:05    1.0      FILE       "c2.DAT"         c2         MM   
c3               VOLUME    00:05    1.0      FILE       "c3.DAT"         c3         MM   
c4               VOLUME    00:05    1.0      FILE       "c4.DAT"         c4         MM   
c5               VOLUME    00:05    1.0      FILE       "c5.DAT"         c5         MM   
c6               VOLUME    00:05    1.0      FILE       "c6.DAT"         c6         MM   
c7               VOLUME    00:05    1.0      FILE       "c7.DAT"         c7         MM   
c8               VOLUME    00:05    1.0      FILE       "c8.DAT"         c8         MM   
c10              VOLUME    00:05    1.0      FILE       "c10.DAT"        c10        MM   
c9               VOLUME    00:05    1.0      FILE       "c9.DAT"         c9         MM   
c11              VOLUME    00:05    1.0      FILE       "c11.DAT"        c11        MM   
c12              VOLUME    00:05    1.0      FILE       "c12.DAT"        c12        MM   
c13              VOLUME    00:05    1.0      FILE       "c13.DAT"        c13        MM   
c14              VOLUME    00:05    1.0      FILE       "c14.DAT"        c14        MM   
c15              VOLUME    00:05    1.0      FILE       "c15.DAT"        c15        MM   

[SUBCATCHMENTS]
;;Name           Rain Gage        Outlet           Area     %Imperv  Width    %Slope   CurbLen  SnowPack        
;;-------------- ---------------- ---------------- -------- -------- -------- -------- -------- ----------------
1                c1               N-4              725      10       3977.22  6.5      0                        
2                c2               N-2              2184     40       8256.26  9        0                        
3                c3               N-1              621      5        4928.39  10.1     0                        
4                c4               N-7              89       55       1554.49  7.6      0                        
5                c5               N-3              368      10       3595.09  7.1      0                        
6                c6               N-6              743      95       6075.46  8.6      0                        
7                c7               N-5              49       95       1092.6   9.2      0                        
8                c8               N-13             482      95       4568.06  8.1      0                        
9                c9               N-8              432      55       4068.4   8.1      0                        
10               c10              N-12             389      10       3717.02  10       0                        
11               c11              N-15             11       1        375.8    10.9     0                        
12               c12              N-11             609      90       4856.89  8        0                        
13               c13              N-10             550      95       4384.63  10.7     0                        
14               c14              N-9              331      60       3690.5   10.5     0                        
15               c15              N-14             98       10       1868.79  10.9     0                        
16               c3               N-18             254      18       2352.80  11.1     0                        
18               c15              N-30             5        19       5451.21  9.5      0                        
19               c1               N-16             5        14       1863.27  5.6      0                        
20               c4               N-27             5        10       1589.67  8.8      0                        
21               c7               N-28             5        45       1237.80  8.2      0                        

[SUBAREAS]
;;Subcatchment   N-Imperv   N-Perv     S-Imperv   S-Perv     PctZero    RouteTo    PctRouted 
;;-------------- ---------- ---------- ---------- ---------- ---------- ---------- ----------
1                0.01       0.124      1.6        6.4        70         OUTLET    
2                0.01       0.124      1.6        6.4        60         OUTLET    
3                0.01       0.124      1.6        6.4        25         OUTLET    
4                0.01       0.124      1.6        6.4        25         OUTLET    
5                0.01       0.124      1.6        6.4        100        OUTLET    
6                0.01       0.124      1.6        6.4        100        OUTLET    
7                0.01       0.124      1.6        6.4        25         OUTLET    
8                0.01       0.124      1.6        6.4        100        OUTLET    
9                0.01       0.124      1.6        6.4        100        OUTLET    
10               0.01       0.124      1.6        6.4        100        OUTLET    
11               0.01       0.124      1.6        6.4        25         OUTLET    
12               0.01       0.124      1.6        6.4        25         OUTLET    
13               0.01       0.124      1.6        6.4        25         OUTLET    
14               0.01       0.124      1.6        6.4        25         OUTLET    
15               0.01       0.124      1.6        6.4        25         OUTLET    
16               0.01       0.124      1.6        6.4        25         OUTLET    
18               0.01       0.124      1.6        6.4        25         OUTLET    
19               0.01       0.124      1.6        6.4        70         OUTLET    
20               0.01       0.124      1.6        6.4        25         OUTLET    
21               0.01       0.124      1.6        6.4        25         OUTLET    

[INFILTRATION]
;;Subcatchment   CurveNum              DryTime   
;;-------------- ---------- ---------- ----------
1                85         0.5        2.5       
2                85         0.5        2.5       
3                87         0.5        2.5       
4                75         0.5        2.5       
5                85         0.5        2.5       
6                92         0.5        2.5       
7                92         0.5        2.5       
8                92         0.5        2.5       
9                75         0.5        2.5       
10               35         0.5        2.5       
11               75         0.5        2.5       
12               90.71      0.5        2.5       
13               75         0.5        2.5       
14               70         0.5        2.5       
15               65.29      0.5        2.5       
16               87         0.5        2.5       
18               84         0.5        2.5       
19               85         0.5        2.5       
20               80         0.5        2.5       
21               92         0.5        2.5       

[JUNCTIONS]
;;Name           Elevation  MaxDepth   InitDepth  SurDepth   Aponded   
;;-------------- ---------- ---------- ---------- ---------- ----------
N-1              840        2.73       0.83       0          0         
N-2              829        2.29       0.65       0          0         
N-3              810        2.76       0.18       0          0         
N-4              829        3.5        0.5        0          0         
N-5              852        2.71       0.17       0          0         
N-6              810        4.8        0.69       0          0         
N-7              838.5      0          0.65       0          0         
N-8              802        0          0.65       0          0         
N-9              845        3.62       0.251      0          0         
N-10             814        3.62       0.251      0          0         
N-11             808        3.98       0.38       0          0         
N-12             788        4          0.35       0          0         
N-13             794        5.29       0.45       0          0         
N-14             883        3.86       0.12       0          0         
N-15             783.5      4          0.35       0          0         
N-16             841        3.5        0.5        0          0         
N-17             839        2.73       0.83       0          0         
N-18             884        2.73       0.83       0          0         
N-19             828        3.5        0.5        0          0         
N-20             825        4.8        0.69       0          0         
N-21             848        2.71       0.17       0          0         
N-22             838        3          0.65       0          0         
N-23             801        3.98       0.38       0          0         
N-25             840        3.62       0.251      0          0         
N-26             877        3.62       0.251      0          0         
N-27             839        0          0.65       0          0         
N-28             859        2.71       0.17       0          0         
N-29             784        4          0.15       0          0         
N-30             887        3.86       0.12       0          0         
N-31             809        4.82       0.69       0          0         
N-32             808        4.8        0.23       0          0         
N-33             790        4          0.28       0          0         
N-34             791        5.29       0.45       0          0         
N-35             810        3.98       0.38       0          0         

[OUTFALLS]
;;Name           Elevation  Type       Stage Data       Gated    Route To        
;;-------------- ---------- ---------- ---------------- -------- ----------------
17               783        FREE                        NO                       

[CONDUITS]
;;Name           From Node        To Node          Length     Roughness  InOffset   OutOffset  InitFlow   MaxFlow   
;;-------------- ---------------- ---------------- ---------- ---------- ---------- ---------- ---------- ----------
L-1              N-18             N-1              2494.41    0.065      0          0          0.107      0         
L-2              N-1              N-17             756.55     0.065      0          0          0.107      0         
L-3              N-17             N-2              6292.38    0.065      0          0          0.15       0         
L-4              N-2              N-20             309.53     0.065      0          0          0.15       0         
L-5              N-20             N-6              2554.71    0.065      0          0          0.281      0         
L-6              N-6              N-31             42.09      0.065      0          0          0.281      0         
L-7              N-16             N-4              1456.1     0.07       0.36       0          0.145      0         
L-8              N-4              N-19             239.96     0.07       0          0          0.145      0         
L-9              N-19             N-3              1787.47    0.065      0          0          0.246      0         
L-10             N-3              N-31             197.6      0.065      0.059      0          0.246      0         
L-11             N-31             N-32             41.54      0.065      0          0          0.527      0         
L-12             N-28             N-5              1162.17    0.065      0          0          0.05       0         
L-13             N-5              N-21             444.62     0.065      0          0          0.062      0         
L-14             N-21             N-32             928        0.065      0          0          0.062      0         
L-15             N-32             N-13             1024       0.065      0.1        0          0.769      0         
L-16             N-13             N-34             1370       0.065      0          0          0.769      0         
L-17             N-30             N-14             678.42     0.065      0          0          0.007      0         
L-18             N-14             N-26             250.533    0.065      0          0          0.018      0         
L-19             N-26             N-9              2073.807   0.065      0          0          0.082      0         
L-20             N-9              N-25             256.98     0.065      0          0          0.082      0         
L-21             N-25             N-10             2022.39    0.065      0          0          0.082      0         
L-22             N-10             N-35             911.9      0.065      0          0          0.215      0         
L-24             N-35             N-11             155.94     0.065      0          0          0.215      0         
L-25             N-11             N-23             472.87     0.065      0          0          0.215      0         
L-26             N-23             N-34             1217.13    0.065      0          0          0.215      0         
L-27             N-34             N-33             43         0.065      0          0          0.984      0         
L-28             N-27             N-7              517.66     0.065      0          0          0.012      0         
L-29             N-7              N-22             274.43     0.065      0          0          0.012      0         
L-30             N-22             N-8              2295.88    0.02       0          0          0.087      0         
L-31             N-8              N-33             580.59     0.012      0          0          1.071      0         
L-32             N-33             N-12             94.7       0.03       0          0          2.055      0         
L-33             N-12             N-29             58         0.012      0          0          2.055      0         
L-34             N-29             N-15             125.96     0.012      0          0          2.055      0         
1                N-15             17               400        0.01       0          0          2.055      0         

[XSECTIONS]
;;Link           Shape        Geom1            Geom2      Geom3      Geom4      Barrels    Culvert   
;;-------------- ------------ ---------------- ---------- ---------- ---------- ---------- ----------
L-1              IRREGULAR    Ponto1           0          0          0          1                    
L-2              IRREGULAR    Entre1e2         0          0          0          1                    
L-3              IRREGULAR    Ponto2x          0          0          0          1                    
L-4              IRREGULAR    Ponto3           0          0          0          1                    
L-5              IRREGULAR    Ponto3           0          0          0          1                    
L-6              IRREGULAR    Ponto3           0          0          0          1                    
L-7              IRREGULAR    Ponto4           0          0          0          1                    
L-8              IRREGULAR    Ponto4           0          0          0          1                    
L-9              IRREGULAR    Ponto5           0          0          0          1                    
L-10             IRREGULAR    Ponto5           0          0          0          1                    
L-11             IRREGULAR    Ponto8           0          0          0          1                    
L-12             IRREGULAR    Ponto6           0          0          0          1                    
L-13             IRREGULAR    Ponto6           0          0          0          1                    
L-14             IRREGULAR    Ponto7           0          0          0          1                    
L-15             IRREGULAR    Ponto8           0          0          0          1                    
L-16             IRREGULAR    Ponto8           0          0          0          1                    
L-17             IRREGULAR    MntGreg          0          0          0          1                    
L-18             IRREGULAR    Ponto11          0          0          0          1                    
L-19             IRREGULAR    Ponto11          0          0          0          1                    
L-20             IRREGULAR    Ponto11          0          0          0          1                    
L-21             IRREGULAR    Ponto11          0          0          0          1                    
L-22             IRREGULAR    Ponto12          0          0          0          1                    
L-24             IRREGULAR    Ponto12          0          0          0          1                    
L-25             IRREGULAR    Ponto12          0          0          0          1                    
L-26             IRREGULAR    Ponto13          0          0          0          1                    
L-27             IRREGULAR    Ponto13          0          0          0          1                    
L-28             IRREGULAR    Ponto9           0          0          0          1                    
L-29             IRREGULAR    Ponto9           0          0          0          1                    
L-30             IRREGULAR    Ponto9           0          0          0          1                    
L-31             IRREGULAR    Ponto10          0          0          0          1                    
L-32             IRREGULAR    Ponto14          0          0          0          1                    
L-33             IRREGULAR    Ponto14          0          0          0          1                    
L-34             IRREGULAR    Ponto14          0          0          0          1                    
1                IRREGULAR    Ponto14          0          0          0          1                    

[TRANSECTS]
;;Transect Data in HEC-2 format
;
NC 0.01     0.01     0.01    
X1 Ponto1            28       0        0        0.0      0.0      0        0        0       
GR 5        0        2.213    0        2.267    11       1.414    13       0.83     17      
GR 0.62     17.2     0.48     17.4     0.34     17.6     0.3      17.8     0.18     18      
GR 0.18     18.2     0.18     18.2     0.11     18.4     0.09     18.6     0.04     18.8    
GR 0        19       0.03     19.2     0.04     19.4     0.42     19.6     0.64     19.8    
GR 0.83     19.95    1.279    20.55    1.399    24.55    1.16     31.55    1.168    38.85   
GR 2.727    41.95    2.648    47.95    5        47.95   
;
NC 0.01     0.01     0.01    
X1 Entre1e2          28       0        0        0.0      0.0      0        0        0       
GR 5        0        2.213    0        2.267    11       1.414    13       0.83     17      
GR 0.62     17.2     0.48     17.4     0.34     17.6     0.3      17.8     0.18     18      
GR 0.18     18.2     0.18     18.2     0.11     18.4     0.09     18.6     0.04     18.8    
GR 0        19       0.03     19.2     0.04     19.4     0.42     19.6     0.64     19.8    
GR 0.83     19.95    1.279    20.55    1.399    24.55    1.16     31.55    1.168    38.85   
GR 2.727    41.95    2.648    47.95    5        47.95   
;
NC 0.01     0.01     0.01    
X1 Ponto3            17       0        0        0.0      0.0      0        0        0       
GR 7        0        3.951    0        3.997    17       0.69     22       0.33     22.4    
GR 0.18     22.8     0        23.2     0.09     23.6     0.22     24       0.37     24.4    
GR 0.4      24.8     0.44     25.2     0.4      25.4     0.42     25.8     0.69     26.2    
GR 4.414    33.2     4.825    50.2    
;
NC 0.01     0.01     0.01    
X1 Ponto2x           26       0        0        0.0      0.0      0        0        0       
GR 5        0        2.012    0        2.287    4        1.623    10.7     0.3      12      
GR 0.08     12.15    0        12.35    0.02     12.55    0        12.75    0.06     12.95   
GR 0.1      13.15    0.15     13.35    0.23     13.55    0.3      13.75    0.36     13.95   
GR 0.43     14.15    0.48     14.35    0.53     14.55    0.55     14.75    0.58     14.95   
GR 0.65     15.15    0.674    16.25    1.985    18.05    2.083    23.05    2.167    31.05   
GR 5        31.05   
;
NC 0.01     0.01     0.01    
X1 Ponto3x           16       0        0        0.0      0.0      0        0        0       
GR 99.791   0        99.837   17       96.53    22       96.17    22.4     96.02    22.8    
GR 95.84    23.2     95.93    23.6     96.06    24       96.21    24.4     96.24    24.8    
GR 96.28    25.2     96.24    25.4     96.26    25.8     96.53    26.2     100.254  33.2    
GR 100.665  50.2    
;
NC 0.01     0.01     0.01    
X1 Ponto6            18       0        0        0.0      0.0      0        0        0       
GR 7        0        2.549    0        2.479    6.3      0.973    9.5      0.07     9.65    
GR 0.06     9.85     0.07     10.05    0.06     10.25    0.04     10.45    0.06     10.65   
GR 0.06     10.85    0        11.05    0.02     11.25    0.01     11.45    0.816    11.6    
GR 2.519    14.6     2.71     21.6     7        21.6    
;
NC 0.01     0.01     0.01    
X1 Ponto6x           16       0        0        0.0      0.0      0        0        0       
GR 99.54    0        99.47    6.3      97.964   9.5      97.061   9.65     97.051   9.85    
GR 97.061   10.05    97.051   10.25    97.031   10.45    97.051   10.65    97.051   10.85   
GR 96.991   11.05    97.011   11.25    97.001   11.45    97.807   11.6     99.51    14.6    
GR 99.701   21.6    
;
NC 0.01     0.01     0.01    
X1 Ponto7            22       0        0        0.0      0.0      0        0        0       
GR 7        0        2.778    0        2.938    13       2.408    15.8     0.261    15.8    
GR 0.09     15.9     0.03     16.3     0.02     16.8     0.01     17.3     0.01     17.8    
GR 0        18.3     0        18.8     0.04     19.3     0.05     19.8     0.06     20.3    
GR 0.07     20.8     0.09     21.3     0.291    21.5     2.483    21.5     2.833    25.5    
GR 2.978    39.5     7        39.5    
;
NC 0.01     0.01     0.01    
X1 Ponto4            26       0        0        0.0      0.0      0        0        0       
GR 7        0        3.519    0        2.525    8        1.875    13.5     1.268    14.3    
GR 0.5      14.7     0.2      14.9     0.21     15.1     0.19     15.3     0.13     15.5    
GR 0.13     15.7     0.06     15.9     0.05     16.1     0.03     16.3     0        16.5    
GR 0.12     16.7     0.27     16.9     0.34     17.1     0.38     17.3     0.5      17.5    
GR 1.183    17.9     1.955    19.2     2.156    26.2     1.991    32.2     2.785    44.2    
GR 7        44.2    
;
NC 0.01     0.01     0.01    
X1 Ponto5            20       0        0        0.0      0.0      0        0        0       
GR 7        0        2.312    0        2.245    9        1.113    11       0.964    16.5    
GR 0.29     16.8     0.02     17.1     0.05     17.4     0.09     17.7     0.03     18      
GR 0.02     18.3     0        18.6     0.02     18.9     0.29     19.2     0.654    19.6    
GR 1.219    22       2.063    22.8     2.761    27.8     2.736    41.8     7        41.8    
;
NC 0.01     0.01     0.01    
X1 Ponto8            22       0        0        0.0      0.0      0        0        0       
GR 8        0        4.515    0        3.722    16.2     0.45     19.4     0.3      19.8    
GR 0.08     20.3     0.1      20.8     0.15     21.3     0.2      21.8     0.11     22.3    
GR 0.13     22.8     0.1      23.3     0.07     23.8     0.06     24.3     0        24.8    
GR 0.05     25.3     0.26     25.8     0.45     26.2     2.996    30.2     5.16     33      
GR 5.287    44       8        44      
;
NC 0.01     0.01     0.01    
X1 MntGreg           21       0        0        0.0      0.0      0        0        0       
GR 7        0        3.858    0        3.289    7        1.155    9        0.56     11.3    
GR 0.12     11.7     0.05     11.9     0.05     12.1     0.02     12.3     0.02     12.5    
GR 0.02     12.7     0.02     12.9     0.02     13.1     0        13.3     0.01     13.5    
GR 0.12     13.65    0.547    14.25    1.25     15.05    2.248    19.85    3.366    24.85   
GR 7        24.85   
;
NC 0.01     0.01     0.01    
X1 Ponto11           26       0        0        0.0      0.0      0        0        0       
GR 7        0        3.615    0        3.239    14       3.229    23.5     1.005    25.3    
GR 0.602    27.2     0.081    27.4     0.061    27.5     0.051    27.6     0.041    27.7    
GR 0.061    27.8     0.061    27.9     0.051    28       0.051    28.1     0.051    28.2    
GR 0.03     28.3     0.02     28.4     0        28.5     0        28.6     0.051    28.7    
GR 0.251    28.7     0.539    29       0.06     31.4     2.77     35       3.182    40      
GR 7        40      
;
NC 0.01     0.01     0.01    
X1 Ponto12           22       0        0        0.0      0.0      0        0        0       
GR 8        0        3.976    0        3.724    13.2     1.344    15.7     0.78     19.4    
GR 0.04     19.7     0.01     19.9     0.03     20.1     0.06     20.3     0.04     20.5    
GR 0.1      20.7     0.09     20.9     0.08     21.1     0.04     21.3     0.02     21.5    
GR 0.02     21.7     0        21.9     0.02     22.1     0.567    23.3     3.105    26.3    
GR 3.153    35.3     8        35.3    
;
NC 0.01     0.01     0.01    
X1 Ponto13           25       0        0        0.0      0.0      0        0        0       
GR 7        0        3.984    0        3.262    13       1.64     14.5     1.662    16.5    
GR 0.278    16.5     0.16     16.7     0.09     17.2     0.06     17.7     0.02     18.2    
GR 0.02     18.7     0        19.2     0        19.7     0.03     20.2     0.04     20.7    
GR 0.07     21.2     0.13     21.7     0.229    22.1     1.673    22.1     1.714    24.1    
GR 3.145    26       4.458    26       5.608    36       5.527    44       7        44      
;
NC 0.01     0.01     0.01    
X1 Ponto9            25       0        0        0.0      0.0      0        0        0       
GR 8        0        3.296    0        2.79     1.3      1.091    1.3      1.076    1.7     
GR 0.843    1.7      0.675    2.1      0.55     2.1      0.13     2.3      0.1      2.5     
GR 0.11     2.7      0.09     2.9      0.09     3.1      0.07     3.3      0.01     3.5     
GR 0        3.7      0.01     3.9      0.05     4.1      0.11     4.3      0.48     4.5     
GR 0.65     4.7      1.156    5        2.359    9.5      3.554    10.6     8        10.6    
;
NC 0.01     0.01     0.01    
X1 Ponto10           19       0        0        0.0      0.0      0        0        0       
GR 8        0        4.678    0        4.133    7        2.073    12.5     0.23     17.7    
GR 0.14     17.9     0.08     18.1     0.03     18.3     0.02     18.5     0        18.7    
GR 0        18.9     0        19.1     0.12     19.3     0.35     19.5     1.427    20.6    
GR 2.171    21.9     3.427    25.7     4.591    33.7     8        33.7    
;
NC 0.01     0.01     0.01    
X1 Ponto14           26       0        0        0.0      0.0      0        0        0       
GR 8        0        5.131    0        3.959    23       4.13     39       3.078    43.5    
GR 0.09     43.5     0.01     43.9     0        44.9     0        45.9     0.07     46.9    
GR 0.1      47.9     0.1      48.9     0.05     49.9     0.13     50.9     0.18     51.9    
GR 0.2      52.9     0.21     53.9     0.25     54.9     0.26     55.9     0.24     56.9    
GR 0.22     57.9     0.18     58.7     3.1      58.7     5.253    65.2     5.448    84.8    
GR 8        84.8    
;
NC 0.01     0.01     0.01    
X1 C2                12       0        0        0.0      0.0      0        0        0       
GR 1        0        0.7      1        0.55     2        0.4      3        0.18     4       
GR 0.08     4.3      0        4.5      0.18     4.6      0.28     4.8      0.3      5       
GR 0.45     5.5      1.15     7       
;
NC 0.01     0.01     0.01    
X1 C3                12       0        0        0.0      0.0      0        0        0       
GR 0.93     0        0.79     1        0.7      2        0.46     3        0.17     4       
GR 0        4.45     0.16     4.6      0.2      5        0.3      5.25     0.35     5.5     
GR 0.7      6.25     1.3      7       
;
NC 0.01     0.01     0.01    
X1 C4                14       0        0        0.0      0.0      0        0        0       
GR 0.9      0        0.85     1        0.84     2        0.54     3        0.1      4       
GR 0.06     4.15     0.015    4.3      0        4.45     0.08     4.6      0.09     4.8     
GR 0.12     5        0.27     5.25     0.2      5.5      1.4      7       
;
NC 0.01     0.01     0.01    
X1 C5                11       0        0        0.0      0.0      0        0        0       
GR 1.2      0        1.1      1        0.8      2        0.65     3        0.17     4       
GR 0.05     4.15     0.02     4.3      0        4.45     0.25     4.6      0.23     4.8     